/*--------------------------------*- C++ -*----------------------------------*\
  =========                 |
  \\      /  F ield         | OpenFOAM: The Open Source CFD Toolbox
   \\    /   O peration     | Website:  https://openfoam.org
    \\  /    A nd           | Version:  8
     \\/     M anipulation  |
\*---------------------------------------------------------------------------*/
FoamFile
{
    version     2.0;
    format      ascii;
    class       dictionary;
    location    "system";
    object      controlDict;
}
// * * * * * * * * * * * * * * * * * * * * * * * * * * * * * * * * * * * * * //

application     rhoCentralFoam;

startFrom       latestTime;

startTime       0;

stopAt          endTime;

endTime         0.2;

deltaT          1e-5;

writeControl    timeStep;

writeInterval	200;

purgeWrite      0;

writeFormat     ascii;

writePrecision  8;

writeCompression off;

timeFormat      general;

timePrecision   8;

graphFormat     raw;

runTimeModifiable true;




functions
{
    #includeFunc getMomentum
    #includeFunc getCoreMomentum


    MachNumber
    {
        type               MachNo;
        libs               ("libfieldFunctionObjects.so");
        executeControl     writeTime;
        writeControl       writeTime;
    }

}



// ************************************************************************* //
