/*--------------------------------*- C++ -*----------------------------------*\
  =========                 |
  \\      /  F ield         | OpenFOAM: The Open Source CFD Toolbox
   \\    /   O peration     | Website:  https://openfoam.org
    \\  /    A nd           | Version:  8
     \\/     M anipulation  |
\*---------------------------------------------------------------------------*/
FoamFile
{
    version     2.0;
    format      ascii;
    class       dictionary;
    location    "system";
    object      fvSolution;
}
// * * * * * * * * * * * * * * * * * * * * * * * * * * * * * * * * * * * * * //

solvers
{
    "(rho|rhoU|rhoE)"
    {
        solver          diagonal;
    }

    "(k|nut|epsilon)"
    {
        solver          smoothSolver;
        smoother        GaussSeidel;
        nSweeps         4;
        tolerance       1e-14;
        relTol          0;
    }

    U
    {
        solver          smoothSolver;
        smoother        GaussSeidel;
        nSweeps         4;
        tolerance	   1e-14;
        relTol          0;	 
    }

    e
    {
        $U;
        tolerance       1e-14;
        relTol          0;
    }
}



// ************************************************************************* //
