/*--------------------------------*- C++ -*----------------------------------*\
  =========                 |
  \\      /  F ield         | OpenFOAM: The Open Source CFD Toolbox
   \\    /   O peration     | Website:  https://openfoam.org
    \\  /    A nd           | Version:  8
     \\/     M anipulation  |
\*---------------------------------------------------------------------------*/
FoamFile
{
    version     2.0;
    format      ascii;
    class       dictionary;
    location    "system";
    object      fvSolution;
}
// * * * * * * * * * * * * * * * * * * * * * * * * * * * * * * * * * * * * * //

solvers
{
    p
    {
        solver          GAMG;
        tolerance       1e-11;
        relTol          0.001;
        smoother        GaussSeidel;
        nCellsInCoarsestLevel 20;
    }

    "(U|e|k|epsilon)"
    {
        solver          smoothSolver;
        tolerance       1e-11;
        relTol          0.001;
        smoother        GaussSeidel;
        nCellsInCoarsestLevel 20;
    }

}

SIMPLE
{
    nCorrectors 2;
    nNonOrthogonalCorrectors 8;
    transonic       yes;
    consistent      yes;

    residualControl
    {
        p               1e-3;
        U               1e-4;
        e               1e-3;

        // possibly check turbulence fields
        "(k|epsilon)" 1e-3;
    }
}


relaxationFactors
{
    fields
    {
        p               0.8;
    }
    equations
    {
        p               0.8;
        U               0.4;
        e               0.3;
        k               0.3;
        epsilon         0.3;
    }
}

// ************************************************************************* //
